/*--------------------------------*- C++ -*----------------------------------*\
| =========                 |                                                 |
| \\      /  F ield         | OpenFOAM: The Open Source CFD Toolbox           |
|  \\    /   O peration     | Version:  2212                                  |
|   \\  /    A nd           | Website:  www.openfoam.com                      |
|    \\/     M anipulation  |                                                 |
\*---------------------------------------------------------------------------*/
FoamFile
{
    version     2.0;
    format      ascii;
    arch        "LSB;label=32;scalar=64";
    class       polyBoundaryMesh;
    location    "constant/polyMesh";
    object      boundary;
}
// * * * * * * * * * * * * * * * * * * * * * * * * * * * * * * * * * * * * * //

7
(
    inlet
    {
        type            patch;
        physicalType    inlet;
        nFaces          5;
        startFace       2568;
    }
    outlet
    {
        type            patch;
        physicalType    outlet;
        nFaces          0;
        startFace       2573;
    }
    walls
    {
        type            wall;
        physicalType    wall;
        inGroups        1(wall);
        nFaces          28;
        startFace       2573;
    }
    frontAndBack
    {
        type            empty;
        physicalType    empty;
        inGroups        1(empty);
        nFaces          2680;
        startFace       2601;
    }
    procBoundary1to0
    {
        type            processor;
        inGroups        1(processor);
        nFaces          94;
        startFace       5281;
        matchTolerance  0.0001;
        transform       unknown;
        myProcNo        1;
        neighbProcNo    0;
    }
    procBoundary1to2
    {
        type            processor;
        inGroups        1(processor);
        nFaces          84;
        startFace       5375;
        matchTolerance  0.0001;
        transform       unknown;
        myProcNo        1;
        neighbProcNo    2;
    }
    procBoundary1to5
    {
        type            processor;
        inGroups        1(processor);
        nFaces          13;
        startFace       5459;
        matchTolerance  0.0001;
        transform       unknown;
        myProcNo        1;
        neighbProcNo    5;
    }
)

// ************************************************************************* //
